/*--------------------------------*- C++ -*----------------------------------*\
  =========                 |
  \\      /  F ield         | OpenFOAM: The Open Source CFD Toolbox
   \\    /   O peration     | Website:  https://openfoam.org
    \\  /    A nd           | Version:  7
     \\/     M anipulation  |
\*---------------------------------------------------------------------------*/
FoamFile
{
    version     2.0;
    format      binary;
    class       volScalarField;
    location    "0";
    object      nSurfaceLayers;
}
// * * * * * * * * * * * * * * * * * * * * * * * * * * * * * * * * * * * * * //

dimensions      [0 0 0 0 0 0 0];

internalField   uniform 0;

boundaryField
{
    wall_4
    {
        type            fixedValue;
        value           uniform 0;
    }
    wall_5
    {
        type            fixedValue;
        value           uniform 0;
    }
    wall_6
    {
        type            fixedValue;
        value           uniform 0;
    }
    wall_1
    {
        type            fixedValue;
        value           uniform 0;
    }
    ground
    {
        type            fixedValue;
        value           uniform 0;
    }
    wall_3
    {
        type            fixedValue;
        value           uniform 0;
    }
    machine1
    {
        type            fixedValue;
        value           uniform 1;
    }
    machine2
    {
        type            fixedValue;
        value           uniform 1;
    }
    machine3
    {
        type            fixedValue;
        value           uniform 1;
    }
    inlet
    {
        type            fixedValue;
        value           uniform 0;
    }
    outlet
    {
        type            fixedValue;
        value           uniform 0;
    }
}


// ************************************************************************* //
