/*--------------------------------*- C++ -*----------------------------------*\
  =========                 |
  \\      /  F ield         | OpenFOAM: The Open Source CFD Toolbox
   \\    /   O peration     | Website:  https://openfoam.org
    \\  /    A nd           | Version:  7
     \\/     M anipulation  |
\*---------------------------------------------------------------------------*/
FoamFile
{
    version     2.0;
    format      ascii;
    class       dictionary;
    location    "system/ambientAir";
    object      fvSchemes;
}
// * * * * * * * * * * * * * * * * * * * * * * * * * * * * * * * * * * * * * //

ddtSchemes
{
    default         backward;
}

gradSchemes
{
    default    	cellMDLimited Gauss linear 1;
    grad(U)	cellMDLimited Gauss linear 1;
}

divSchemes
{
//transient

    default         Gauss linear;
    div(phi,U)      Gauss linearUpwindV grad(U);
    div(phi,k)      Gauss limitedLinear 1;
    div(phi,K)      Gauss limitedLinear 1;
    div(phi,h)      Gauss linearUpwind default;
    div(phi,B)      Gauss limitedLinear 1;
    div(B)          Gauss linear;
    div((nuEff*dev2(T(grad(U))))) Gauss linear;
    div(((rho*nuEff)*dev2(T(grad(U))))) Gauss linear;

}

laplacianSchemes
{
    default         Gauss linear limited 1;
}

interpolationSchemes
{
    default         linear;
}

snGradSchemes
{
    default         limited 1;
}



wallDist
{
    method meshWave;
}

// ************************************************************************* //
